 &time_control
 run_days                            = 0,
 run_hours                           = 0,
 run_minutes                         = 1,
 run_seconds                         = 0,
 start_year                          = 0001, 0001, 0001,
 start_month                         = 01,   01,   01,
 start_day                           = 01,   01,   01,
 start_hour                          = 00,   00,   00,
 start_minute                        = 00,   00,   00,
 start_second                        = 00,   00,   00,
 end_year                            = 0001, 0001, 0001,
 end_month                           = 01,   01,   01,
 end_day                             = 01,   01,   01,
 end_hour                            = 00,   00,   00,
 end_minute                          = 120,  120,  120,
 end_second                          = 00,   00,   00,
 history_interval                    = 10,   10,   10,
 frames_per_outfile                  = 1000, 1000, 1000,
 restart                             = .false.,
 restart_interval                    = 120,
 io_form_history                     = 2
 io_form_restart                     = 2
 io_form_input                       = 2
 io_form_boundary                    = 2
 debug_level                         = 0
 /

 &domains
 time_step                           = 12,
 time_step_fract_num                 = 0,
 time_step_fract_den                 = 1,
 max_dom                             = 1,
 s_we                                = 1,     1,     1,
 e_we                                = 42,    43,    43,
 s_sn                                = 1,     1,     1,
 e_sn                                = 42,    43,    43,
 s_vert                              = 1,     1,     1,
 e_vert                              = 41,    41,    41,
 dx                                  = 2000,  666.6666667, 222.2222222
 dy                                  = 2000,  666.6666667, 222.2222222
 ztop                                = 20000, 20000, 20000,
 grid_id                             = 1,     2,     3,
 level                               = 1,     2,     3,
 parent_id                           = 0,     1,     2,
 i_parent_start                      = 0,     15,    15,
 j_parent_start                      = 0,     15,    15,
 parent_grid_ratio                   = 1,     3,     3,
 parent_time_step_ratio              = 1,     3,     3,
 feedback                            = 1,
 smooth_option                       = 0
 sr_x                                = 0,0,5	! subgrid ratio in x (used for fire/fuel cell refinement)
 sr_y                                = 0,0,5	! subgrid ratio in y (used for fire/fuel cell refinement)
 /

 &physics
 mp_physics                          = 1,     1,     1,
 ra_lw_physics                       = 0,     0,     0,
 ra_sw_physics                       = 0,     0,     0,
 radt                                = 30,    30,    30,
 sf_sfclay_physics                   = 0,     0,     0,
 sf_surface_physics                  = 0,     0,     0,
 bl_pbl_physics                      = 0,     0,     0,
 bldt                                = 0,     0,     0,
 cu_physics                          = 0,     0,     0,
 cudt                                = 5,     5,     5,
 isfflx                              = 1,
 ifsnow                              = 0,
 icloud                              = 1,
 num_soil_layers                     = 5,
 mp_zero_out                         = 0,
 /

 &dynamics
 dyn_opt                             = 2,
 rk_ord                              = 3,
 diff_opt                            = 1,
 km_opt                              = 1,
 damp_opt                            = 0,
 zdamp                               = 5000.,  5000.,  5000.,
 dampcoef                            = 0.01,   0.01,   0.01
 khdif                               = 500,    500,    500,
 kvdif                               = 500,    500,    500,
 smdiv                               = 0.1,    0.1,    0.1,
 emdiv                               = 0.01,   0.01,   0.01,
 epssm                               = 0.1,    0.1,    0.1
 non_hydrostatic                     = .true., .true., .true.,
 time_step_sound                     = 6,      6,      6,
 h_mom_adv_order                     = 5,      5,      5,
 v_mom_adv_order                     = 3,      3,      3,
 h_sca_adv_order                     = 5,      5,      5,
 v_sca_adv_order                     = 3,      3,      3,
 /

 &bdy_control
 periodic_x                          = .false.,.false.,.false.,
 symmetric_xs                        = .false.,.false.,.false.,
 symmetric_xe                        = .false.,.false.,.false.,
 open_xs                             = .true., .false.,.false.,
 open_xe                             = .true., .false.,.false.,
 periodic_y                          = .false.,.false.,.false.,
 symmetric_ys                        = .false.,.false.,.false.,
 symmetric_ye                        = .false.,.false.,.false.,
 open_ys                             = .true., .false.,.false.,
 open_ye                             = .true., .false.,.false.,
 nested                              = .false., .true., .true.,
 /

 &namelist_quilt
 nio_tasks_per_group = 0,
 nio_groups = 1,
 /

&fire
! be sure to set sr_x,sr_y in domains-namelist (to set refinement in x,y)
 ifire              = 1,	! integer, = 0: no fire, = 1: cc_fire
 fire_lat_init      =   40.,	! real   , initial fire latitude (deg)
 fire_lon_init      = -105.,	! real   , initial fire longitude (deg)
 fire_ign_time      = 0.3,	! real   , time of fire ignition (s)
 fire_shape         = 1,	! integer, initial fire shape
 fire_sprd_mdl      = 1,	! integer, = 0: Macarthur, = 1: BEHAVE
 fire_crwn_hgt      = 15.,	! real   , height of canopy crown (m)
 fire_ext_grnd      = 50.,	! real   , extinction coeff ground fire
 fire_ext_crwn      = 50.,	! real   , extinction coeff crown fire
 fire_fuel_read     = 1,	! integer, = 1: fuels specified; = 2: read from file
 fire_fuel_cat      = 8,	! integer, if specified which fuel category?
/
