 1000.00     300.00       0.00
   2.36      300.00       0.00       5.50       0.00
   7.93      300.00       0.00       5.50       0.00
  14.64      300.00       0.00       5.50       0.00
  22.48      300.00       0.00       5.50       0.00
  31.47      300.00       0.00       5.50       0.00
  41.60      300.00       0.00       5.50       0.00
  52.86      300.00       0.00       5.50       0.00
  65.27      300.00       0.00       5.50       0.00
  78.81      300.00       0.00       5.50       0.00
  93.50      300.00       0.00       5.50       0.00
 109.32      300.00       0.00       5.50       0.00
 126.28      300.00       0.00       5.50       0.00
 144.38      300.00       0.00       5.50       0.00
 163.62      300.00       0.00       5.50       0.00
 184.00      300.00       0.00       5.50       0.00
 205.52      300.00       0.00       5.50       0.00
 228.18      300.00       0.00       5.50       0.00
 251.98      300.00       0.00       5.50       0.00
 276.92      300.00       0.00       5.50       0.00
 302.99      300.00       0.00       5.50       0.00
 330.21      300.00       0.00       5.50       0.00
 358.56      300.00       0.00       5.50       0.00
 388.05      300.00       0.00       5.50       0.00
 418.69      300.00       0.00       5.50       0.00
 450.46      300.00       0.00       5.50       0.00
 483.37      300.00       0.00       5.50       0.00
 517.42      300.00       0.00       5.50       0.00
 552.61      300.00       0.00       5.50       0.00
 588.94      300.00       0.00       5.50       0.00
 626.41      300.00       0.00       5.50       0.00
 665.02      300.00       0.00       5.50       0.00
 704.76      300.00       0.00       5.50       0.00
 745.65      300.00       0.00       5.50       0.00
 787.67      300.00       0.00       5.50       0.00
 830.84      300.00       0.00       5.50       0.00
 875.14      300.00       0.00       5.50       0.00
 920.59      300.00       0.00       5.50       0.00
 967.17      300.00       0.00       5.50       0.00
1014.89      303.95       0.00       5.50       0.00
1063.75      308.00       0.00       5.50       0.00
1113.75      308.15       0.00       5.50       0.00
1164.89      308.30       0.00       5.50       0.00
1217.17      308.46       0.00       5.50       0.00
1270.59      308.62       0.00       5.50       0.00
1325.14      308.79       0.00       5.50       0.00
1380.84      308.95       0.00       5.50       0.00
1437.67      309.12       0.00       5.50       0.00
2062.00      311.00       0.00       5.50       0.00
3062.00      314.00       0.00       5.50       0.00
