1019.00     290.66      8.817          
   2.00     289.36      8.689     -0.52     -2.85
   4.50     288.32      8.658     -0.67     -3.19
  10.00     288.13      8.079     -1.00     -3.93
  15.00     287.85      7.924     -1.02     -4.04
  20.00     287.81      7.768     -1.04     -4.16
  25.00     287.77      7.613     -1.06     -4.27
  28.00     287.62      7.660     -1.07     -4.34
  30.00     287.68      7.458     -1.10     -4.40
  35.00     287.77      7.303     -1.18     -4.56
  40.00     287.42      7.147     -1.52     -5.78
  42.00     287.52      7.010     -1.29     -4.78
  50.00     287.29      6.774     -1.93     -6.79
  60.00     287.26      7.172     -2.34     -6.72
  70.00     287.22      7.507     -2.54     -6.84
  80.00     287.19      7.761     -2.74     -6.93
  90.00     287.22      7.639     -2.67     -7.10
 100.00     287.25      7.436     -2.89     -7.19
 110.00     287.28      7.234     -3.03     -7.13
 120.00     287.31      7.031     -3.25     -7.16
 130.00     287.34      6.711     -3.45     -7.26
 140.00     287.34      6.828     -3.50     -7.62
 150.00     287.33      6.828     -3.58     -7.42
 160.00     287.31      6.818     -3.77     -7.74
 170.00     287.35      6.810     -3.59     -7.56
 180.00     287.33      6.784     -3.35     -7.36
 190.00     287.31      6.769     -3.37     -7.27
 200.00     287.30      6.768     -3.24     -7.25
 210.00     287.29      6.767     -3.20     -7.17
 220.00     287.31      6.759     -3.27     -7.12
 230.00     287.33      6.751     -3.39     -7.22
 240.00     287.35      6.752     -3.44     -7.23
 250.00     287.35      6.758     -3.37     -7.41
 260.00     287.28      6.757     -3.26     -7.33
 270.00     287.29      6.738     -3.19     -7.32
 280.00     287.36      6.689     -3.50     -7.59
 290.00     287.37      6.646     -3.54     -7.50
 300.00     287.39      6.629     -3.58     -7.48
 310.00     287.47      6.587     -3.39     -7.40
 320.00     287.50      6.556     -3.54     -7.20
 330.00     287.51      6.537     -3.55     -6.88
 340.00     287.53      6.524     -3.66     -6.87
 350.00     287.56      6.518     -3.63     -7.01
 360.00     287.66      6.516     -3.64     -6.94
 370.00     287.73      6.503     -3.43     -6.87
 380.00     287.69      6.471     -3.45     -7.14
 390.00     287.75      6.440     -3.16     -7.13
 400.00     287.76      6.458     -3.43     -7.00
 410.00     287.95      6.478     -3.50     -6.71
 420.00     288.15      6.518     -3.55     -6.48
 430.00     288.34      6.574     -3.90     -6.55
 440.00     288.45      6.578     -3.33     -6.72
 450.00     288.65      6.606     -3.84     -6.68
 460.00     288.82      6.658     -3.93     -6.49
 470.00     289.16      6.776     -4.11     -6.60
 480.00     289.53      6.949     -4.24     -6.78
 490.00     289.89      7.032     -4.40     -6.70
 500.00     290.11      6.993     -4.40     -6.48
 510.00     291.14      7.659     -4.56     -6.38
 520.00     291.85      8.059     -4.75     -6.40
 530.00     292.27      8.188     -5.03     -6.42
 540.00     292.66      8.345     -5.36     -6.39
 550.00     292.95      8.590     -5.67     -6.32
 560.00     293.14      8.908     -5.87     -6.09
 570.00     293.47      9.208     -6.13     -6.22
 580.00     293.66      9.078     -6.35     -6.18
 590.00     293.87      9.098     -6.52     -6.14
 600.00     293.97      9.204     -6.64     -6.10
