 1019.00     292.37      8.817
    2.00     290.02      8.689     -1.52     -2.47
   10.00     289.01      7.956     -1.82     -3.62
   28.00     288.50      7.660     -1.67     -4.14
   42.00     288.36      7.010     -2.10     -4.48
   50.00     288.31      6.774     -2.10     -4.51
   80.00     288.31      7.761     -2.23     -4.78
  130.00     288.27      6.711     -2.36     -5.06
