 &time_control
 run_days                            = 0,
 run_hours                           = 0,
 run_minutes                         = 0,
 run_seconds                         = 0,
 start_year                          = 2009,2009,
 start_month                         = 08,08,
 start_day                           = 14,14,
 start_hour                          = 12,12,
 start_minute                        = 00,00,
 start_second                        = 00,00,
 end_year                            = 2009,2009,
 end_month                           = 08,08,
 end_day                             = 16,16,
 end_hour                            = 12,12,
 end_minute                          = 00,00,
 end_second                          = 00,00,
 interval_seconds                    = 21600
 input_from_file                     = .true.,.true.,
 history_interval_s                  = 300,60,
 frames_per_outfile                  = 288,720,
 restart                             = .false.,
 restart_interval                    = 180,
 io_form_history                     = 2
 io_form_restart                     = 2
 io_form_input                       = 2
 io_form_boundary                    = 2
 debug_level                         = 0
 /

 &domains
 time_step                           = 0,
 time_step_fract_num                 = 3,
 time_step_fract_den                 = 2,
 max_dom                             = 2,
 s_we                                = 1,1,
 e_we                                = 180,221,
 s_sn                                = 1,  1,
 e_sn                                = 180,221,
 s_vert                              = 1,  1,
 e_vert                              = 41, 41,
 num_metgrid_levels                  = 27
 dx                                  = 250,50,
 dy                                  = 250,50,
 grid_id                             = 1,  2,
 parent_id                           = 0,  1,
 i_parent_start                      = 1,  67,
 j_parent_start                      = 1,  67,
 parent_grid_ratio                   = 1,  5,
 parent_time_step_ratio              = 1,  5,
 feedback                            = 0,
 smooth_option                       = 0
 sr_x                                = 0,10,
 sr_y                                = 0,10,
 sfcp_to_sfcp                        = .true.,
 p_top_requested                     = 10000

 /

&physics
 mp_physics                          = 2,2,
 ra_lw_physics                       = 1,1,
 ra_sw_physics                       = 1,1,
 radt                                = 10,5,
 sf_sfclay_physics                   = 1,1,
 sf_surface_physics                  = 1,1,
 bl_pbl_physics                      = 1,1,
 bldt                                = 0,0,
 cu_physics                          = 0,0,
 cudt                                = 5,5,
 isfflx                              = 1,
 ifsnow                              = 0,
 icloud                              = 0,
 surface_input_source                = 1,
 num_soil_layers                     = 5,
 maxiens                             = 1,
 maxens                              = 3,
 maxens2                             = 3,
 maxens3                             = 16,
 ensdim                              = 144,
 /


 &fdda
 /

 &dynamics
 rk_ord                              = 3,
 w_damping                           = 0,
 diff_opt                            = 2,
 km_opt                              = 2,
 damp_opt                            = 0,
 base_temp                           = 290.
 zdamp                               = 5000.,5000.,
 dampcoef                            = 0.2,0.2,
 khdif                               = 0.05,0.05,
 kvdif                               = 0.05,0.05,
 smdiv                               = 0.1,0.1,
 emdiv                               = 0.01,0.01,
 epssm                               = 0.1,0.1,
 time_step_sound                     = 20,20,
 h_mom_adv_order                     = 5,5,
 v_mom_adv_order                     = 3,3,
 h_sca_adv_order                     = 5,5,
 v_sca_adv_order                     = 3,3,
 non_hydrostatic                     = .true.,.true.,
 /

&fire ! be sure to set sr_x,sr_y in domains-namelist (to set refinement in x,y)
 ifire              = 0, 2,    ! integer, = 0: no fire, = 2: SFIRE 
!
 fire_fuel_read     = 0, -1,    ! integer, 0= use fire_fuel_cat, 1= by altitude 2= read from file
 fire_fuel_cat      = 0, 3,    ! integer, if specified which fuel category?

! ignition
 fire_num_ignitions = 0, 1,        ! integer, only the first fire_num_ignition used, up to 5 allowed
 fire_ignition_start_lon1 = 0., 25.9381, ! start points of ignition lines, longitude 
 fire_ignition_start_lat1 = 0., 41.8407, ! start points of ignition lines,latitude 
 fire_ignition_end_lon1 =   0., 25.9381, ! end points of ignition lines
 fire_ignition_end_lat1 =   0., 41.8407, ! end points of ignition lines
 fire_ignition_radius1 =    0,  50, ! all within this radius (m) will ignite, > fire mesh step
 fire_ignition_start_time1= 0.,  5, ! sec for ignition from the start
 fire_ignition_end_time1  = 0., 10,
 fire_ignition_start_lon2=  0,-107.287954, ! start points of ignition lines, 
 fire_ignition_start_lat2 = 0, 39.698696, ! start points of ignition lines, 
 fire_ignition_end_lon2 =   0,-107.287954,! end points of ignition lines, 
 fire_ignition_end_lat2 =   0, 39.71099, ! end points of ignition lines, 
 fire_ignition_radius2 =    0, 18, ! all within this radius (m) will ignite, > fire mesh step
 fire_ignition_start_time2= 0, 3, ! sec for ignition from the start! end ignition for sfire
 fire_ignition_end_time2  = 0., 15,
 fire_ignition_start_lon3=  0,-107.289096, ! start points of ignition lines, 
 fire_ignition_start_lat3 = 0, 39.706599, ! start points of ignition lines, 
 fire_ignition_end_lon3 =   0, 0, ! end points of ignition lines, 0 for same as start
 fire_ignition_end_lat3 =   0, 0, ! end points of ignition lines, 0 for same as start
 fire_ignition_radius3 =    0, 50, ! all within this radius (m) will ignite, > fire mesh step
 fire_ignition_start_time3= 0, 4, ! sec for ignition from the start! end ignition for sfire
 fire_ignition_end_time3  = 0., 15,
!
! verbosity
 fire_print_msg     = 0, 0,    ! 1 to print fire debugging/progress messages (compile with DEBUG OUT in the sf sources)
 fire_print_file    = 0, 0,    ! 1 to write text output files for matlab
!
! method selections for experiments, *do not change*
 fire_boundary_guard = 0,-1,      ! integer, number of cells to stop when fire close to the domain boundary, -1 turn off
 fire_fuel_left_method=0,1,       ! 1=simple algebraic, 2=exact quadrature and least squares
 fire_fuel_left_irl=0,2,          ! refinement to integrate fuel_left, must be even
 fire_fuel_left_jrl=0,2,          ! refinement to integrate fuel_left, must be even
 fire_atm_feedback= 0.,1.,          ! real, multiplier for heat fluxes, 1.=normal, 0.=turn off two-way coupling 
 fire_grows_only=0,1,             ! if >0 level set function cannot increase = fire can only grow
 fire_viscosity=    0.,0.4,            ! artificial viscosity in level set method (max 1, needed with fire_upwinding=0)
 fire_upwinding=0,3,              ! 0=none, 1=standard, 2=godunov, 3=eno, 4=sethian
 fire_lfn_ext_up=   0.,1.0,           ! 0.=extend level set function at boundary by reflection, 1.=always up
 fire_test_steps=0,0,             ! >0 = on first call, do specified number of steps and terminate (testing only)
 fire_topo_from_atm=0,1,          ! 0 = expect fire mesh topo set correctly on entry, 1 = populate by interpolating from atmosphere
 /

  &bdy_control
 spec_bdy_width                      = 5,
 spec_zone                           = 1,
 relax_zone                          = 4,
 specified                           = .true.,.false.,
 periodic_x                          = .false.,false.,
 symmetric_xs                        = .false.,false.,
 symmetric_xe                        = .false.,false.,
 open_xs                             = .false.,false.,
 open_xe                             = .false.,false.,
 periodic_y                          = .false.,false.,
 symmetric_ys                        = .false.,false.,
 symmetric_ye                        = .false.,false.,
 open_ys                             = .false.,false.,
 open_ye                             = .false.,false.,
 nested                              = .false.,.true.,
 /

 &grib2
 /

 &namelist_quilt
 nio_tasks_per_group = 0,
 nio_groups = 1,
 /
