 &time_control
 run_days                            = 0,
 run_hours                           = 6,
 run_minutes                         = 0,
 run_seconds                         = 0,
 start_year                          = 2005,2008,2008,2008,2008,2008,
 start_month                         = 08,05,05,05,05,05,
 start_day                           = 28,19,19,19,19,19,
 start_hour                          = 12,   12,   12,12,12,12,
 start_minute                        = 00,   00,   00,00,00,00,
 start_second                        = 00,   00,   00,00,00,00,
 end_year                            = 2005,2008,2008,2008,2008,2008,
 end_month                           = 08,05,05,05,05,05,
 end_day                             = 28,   19,19,19,19,19,
 end_hour                            = 18,   18,18,18,18,18,
 end_minute                          = 00,   00,   00,00,00,00,
 end_second                          = 00,   00,   00,00,00,00,
 interval_seconds                    = 21600
 input_from_file                     = .true.,.false.,.false.,.false.,.false.,.false.,
 history_interval                    = 1,  1,1,1,1,1,
 frames_per_outfile                  = 1000, 1000, 1000,1000,1000,1000,
 restart                             = .false.,
 restart_interval                    = 5000,
 io_form_history                     = 2
 io_form_restart                     = 2
 io_form_input                       = 2
 io_form_boundary                    = 2
 debug_level                         = 0
 /

 &domains
 time_step                           = 1,
 time_step_fract_num                 = 0,
 time_step_fract_den                 = 10,
 max_dom                             = 1,
 s_we                                = 1,     1,     1, 1,1,1,
 e_we                                = 50,  43, 43, 43, 43,43,
 s_sn                                = 1,     1,     1,1,1,1,
 e_sn                                = 42,  43, 43, 43, 43, 43,
 s_vert                              = 1,     1,     1,1,1,1,
 e_vert                              = 41,    41,41,41,41,41,
 num_metgrid_levels                  = 27
 dx                                  = 1000,  4860,  1620,540,180,60,
 dy                                  = 1000,  4860,  1620,540,180,60,
 grid_id                             = 1,     2,     3,4,5,6,
 parent_id                           = 0,     1,     2,3,4,5,
 i_parent_start                      = 0,   15, 15, 15, 15, 15,
 j_parent_start                      = 0,   15, 15, 15, 15, 15,
 parent_grid_ratio                   = 1,     3,     3,3,3,3,
 parent_time_step_ratio              = 1,     3,     3,3,3,3,
 feedback                            = 1,
 smooth_option                       = 0
 sr_x                                = 10,1,1,1,1,10,
 sr_y                                = 10,1,1,1,1,10,
 sfcp_to_sfcp                        = .true.,
 /

&physics
 mp_physics                          = 2,0,0,0,0,0,
 ra_lw_physics                       = 1,0,0,0,0,0,
 ra_sw_physics                       = 1,0,0,0,0,0,
 radt                                = 10,10,10,10,10,10,
 sf_sfclay_physics                   = 1,0,0,0,0,0,
 sf_surface_physics                  = 1,0,0,0,0,0,
 bl_pbl_physics                      = 1,0,0,0,0,0,
 bldt                                = 0,0,0,0,0,0,
 cu_physics                          = 1,0,0,0,0,0,
 cudt                                = 5,5,5,5,5,5,
 isfflx                              = 1,
 ifsnow                              = 0,
 icloud                              = 0,
 surface_input_source                = 1,
 num_soil_layers                     = 5,
 ucmcall                             = 0,
 mp_zero_out                         = 0,
 maxiens                             = 1,
 maxens                              = 3,
 maxens2                             = 3,
 maxens3                             = 16,
 ensdim                              = 144,
 /


 &fdda
 /

 &dynamics
 dyn_opt                             = 2,
 rk_ord                              = 3,
 w_damping                           = 0,
 diff_opt                            = 2,
 km_opt                              = 2,
 damp_opt                            = 0,
 base_temp                           = 290.
 zdamp                               = 5000.,  5000.,  5000.,5000.,5000.,5000.,
 dampcoef                            = 0.2,   0.01,0.01,0.01,0.01,0.01,
 khdif                               = 0.05,      0,      0,0,0,0,
 kvdif                               = 0.05,      0,      0,0,0,0,
 smdiv                               = 0.1,    0.1,    0.1,0.1,0.1,0.1,
 emdiv                               = 0.01,   0.01,   0.01,0.01,0.01,0.01,
 epssm                               = 0.1,    0.1,    0.1,0.1,0.1,0.1,
 time_step_sound                     = 20,      0,      0,0,0,0,
 h_mom_adv_order                     = 5,      5,      5,5,5,5,
 v_mom_adv_order                     = 3,      3,      3,3,3,3,
 h_sca_adv_order                     = 5,      5,      5,5,5,5,
 v_sca_adv_order                     = 3,      3,      3,3,3,3,
 non_hydrostatic                     = .true., .true., .true.,.true.,.true.,.true.,
 pd_moist                            = .false., .false., .false.,.false.,.false.,.false.,
 pd_scalar                           = .false., .false., .false.,.false.,.false.,.false.,
 pd_chem                             = .false., .false., .false.,.false.,.false.,.false.,
 pd_tke                              = .false., .false., .false.,.false.,.false.,.false.,
 /

 &fire ! be sure to set sr_x,sr_y in domains-namelist (to set refinement in x,y)
 ifire              = 0,0,0,0,0,3   ! integer, = 0: no fire, = 1: cc_fire, 2=sfire through Ned's driver, 3=sfire
! ignition for cawfe
!fire_lat_init      =   0,0,0,0,0,40.,    ! real   , initial fire latitude (deg)
!fire_lon_init      = 0,0,0,0,0,-105.,    ! real   , initial fire longitude (deg)
 fire_lat_init      = 0,0,0,0,0,34.83,  ! real   , initial fire latitude (deg)
 fire_lon_init      = 0,0,0,0,0,-81.03,  ! real   , initial fire longitude (deg)
 fire_ign_time      = 0,0,0,0,0,30,      ! real   , time of fire ignition (s)
 fire_shape         = 0,0,0,0,0,1,    ! integer, initial fire shape
! ignition for sfire
 fire_num_ignitions = 0,0,0,0,0,3,        ! integer, only the first fire_num_ignition used, up to 5 allowed
 fire_ignition_start_x1 = 0,0,0,0,0,1000  ! start points of ignition lines, in m from lower left corner
 fire_ignition_start_y1 =  0,0,0,0,0,500  ! start points of ignition lines, in m from lower left corner
 fire_ignition_end_x1 =   0,0,0,0,0,1000  ! end points of ignition lines, in m from lower left corner
 fire_ignition_end_y1 =   0,0,0,0,0,1900  ! end points of ignition lines, in m from lower left corner
 fire_ignition_radius1 =    0,0,0,0,0,18  ! all within this radius will ignite, > fire mesh step
 fire_ignition_time1  =      0,0,0,0,0,2  ! sec for ignition from the start
 fire_ignition_start_x2 = 0,0,0,0,0,1500  ! start points of ignition lines, in m from lower left corner
 fire_ignition_start_y2 =  0,0,0,0,0,500  ! start points of ignition lines, in m from lower left corner
 fire_ignition_end_x2 =   0,0,0,0,0,1500  ! end points of ignition lines, in m from lower left corner
 fire_ignition_end_y2 =   0,0,0,0,0,1900  ! end points of ignition lines, in m from lower left corner
 fire_ignition_radius2 =    0,0,0,0,0,18  ! all within this radius will ignite, > fire mesh step
 fire_ignition_time2  =      0,0,0,0,0,3  ! sec for ignition from the start! end ignition for sfire
 fire_ignition_start_x3 = 0,0,0,0,0,1400  ! start points of ignition lines, in m from lower left corner
 fire_ignition_start_y3 = 0,0,0,0,0,1400  ! start points of ignition lines, in m from lower left corner
 fire_ignition_end_x3 =   0,0,0,0,0,1400  ! end points of ignition lines, in m from lower left corner
 fire_ignition_end_y3 =   0,0,0,0,0,1400  ! end points of ignition lines, in m from lower left corner
 fire_ignition_radius3 =    0,0,0,0,0,50  ! all within this radius will ignite, > fire mesh step
 fire_ignition_time3  =      0,0,0,0,0,4  ! sec for ignition from the start! end ignition for sfire
 fire_sprd_mdl      = 0,0,0,0,0,1,    ! integer, = 0: Macarthur, = 1: BEHAVE
 fire_crwn_hgt      = 0,0,0,0,0,15.,  ! real   , height of canopy crown (m)
 fire_ext_grnd      = 0,0,0,0,0,50.,  ! real   , extinction coeff ground fire
 fire_ext_crwn      = 0,0,0,0,0,50.,  ! real   , extinction coeff crown fire 
 fire_fuel_read     = -1,0,0,0,0,0,    ! integer, 0= use fire_fuel_cat, 1= by altitude 2= read from file
 fire_fuel_cat      = 0,0,0,0,0,3,    ! integer, if specified which fuel category?
 fire_print_msg     = 0,0,0,0,0,1,    ! 1 to print fire debugging messages
 fire_print_file    = 0,0,0,0,0,1,    ! 1 to write text output files for fire arrays
 /

 &bdy_control
 spec_bdy_width                      = 5,
 spec_zone                           = 1,
 relax_zone                          = 4,
 specified                           = .true., .false.,.false.,.false.,.false.,.false.,
 periodic_x                          = .false.,.false.,.false.,.false.,.false.,.false.,
 symmetric_xs                        = .false.,.false.,.false.,.false.,.false.,.false.,
 symmetric_xe                        = .false.,.false.,.false.,.false.,.false.,.false.,
 open_xs                             = .false.,.false.,.false.,.false.,.false.,.false.,
 open_xe                             = .false.,.false.,.false.,.false.,.false.,.false.,
 periodic_y                          = .false.,.false.,.false.,.false.,.false.,.false.,
 symmetric_ys                        = .false.,.false.,.false.,.false.,.false.,.false.,
 symmetric_ye                        = .false.,.false.,.false.,.false.,.false.,.false.,
 open_ys                             = .false.,.false.,.false.,.false.,.false.,.false.,
 open_ye                             = .false.,.false.,.false.,.false.,.false.,.false.,
 nested                              = .false., .true., .true., .true., .true., .true.,
 /

 &grib2
 /

 &namelist_quilt
 nio_tasks_per_group = 0,
 nio_groups = 1,
 /
