 &time_control
 run_days                            = 0,
 run_hours                           = 12,
 run_minutes                         = 0,
 run_seconds                         = 0,
 start_year                          = 2000, 2000, 2000,
 start_month                         = 01,   01,   01,
 start_day                           = 24,   24,   24,
 start_hour                          = 12,   12,   12,
 start_minute                        = 00,   00,   00,
 start_second                        = 00,   00,   00,
 end_year                            = 2000, 2000, 2000,
 end_month                           = 01,   01,   01,
 end_day                             = 25,   25,   25,
 end_hour                            = 12,   12,   12,
 end_minute                          = 00,   00,   00,
 end_second                          = 00,   00,   00,
 interval_seconds                    = 21600
 input_from_file                     = .true.,.false.,.false.,
 history_interval                    = 3,  60,   60,
 frames_per_outfile                  = 1000, 1000, 1000,
 restart                             = .false.,
 restart_interval                    = 3,
 io_form_history                     = 2
 io_form_restart                     = 2
 io_form_input                       = 2
 io_form_boundary                    = 2
 debug_level                         = 0
 /

 &domains
 time_step                           = 180,
 time_step_fract_num                 = 0,
 time_step_fract_den                 = 1,
 max_dom                             = 1,
 s_we                                = 1,     1,     1,
 e_we                                = 74,    112,   94,
 s_sn                                = 1,     1,     1,
 e_sn                                = 61,    97,    91,
 s_vert                              = 1,     1,     1,
 e_vert                              = 28,    28,    28,
 num_metgrid_levels                  = 27
 dx                                  = 30000, 10000,  3333,
 dy                                  = 30000, 10000,  3333,
 grid_id                             = 1,     2,     3,
 parent_id                           = 0,     1,     2,
 i_parent_start                      = 0,     31,    30,
 j_parent_start                      = 0,     17,    30,
 parent_grid_ratio                   = 1,     3,     3,
 parent_time_step_ratio              = 1,     3,     3,
 feedback                            = 1,
 smooth_option                       = 0,
 sr_x = 10,
 sr_y = 10,
 /

! &physics
! mp_physics                          = 3,     3,     3,
! ra_lw_physics                       = 1,     1,     1,
! ra_sw_physics                       = 1,     1,     1,
! radt                                = 30,    30,    30,
! sf_sfclay_physics                   = 1,     1,     1,
! sf_surface_physics                  = 1,     1,     1,
! bl_pbl_physics                      = 1,     1,     1,
! bldt                                = 0,     0,     0,
! cu_physics                          = 1,     1,     0,
! cudt                                = 5,     5,     5,
! isfflx                              = 1,
! ifsnow                              = 0,
! icloud                              = 1,
! surface_input_source                = 1,
! num_soil_layers                     = 5,
! ucmcall                             = 0,
! mp_zero_out                         = 0,
! maxiens                             = 1,
! maxens                              = 3,
! maxens2                             = 3,
! maxens3                             = 16,
! ensdim                              = 144,
! /

 &physics
 mp_physics                          = 0,     0,     0,
 ra_lw_physics                       = 0,     0,     0,
 ra_sw_physics                       = 0,     0,     0,
 radt                                = 30,    30,    30,
 sf_sfclay_physics                   = 0,     0,     0,
 sf_surface_physics                  = 0,     0,     0,
 bl_pbl_physics                      = 0,     0,     0,
 bldt                                = 0,     0,     0,
 cu_physics                          = 0,     0,     0,
 cudt                                = 0,     0,     0,
 isfflx                              = 1,
 ifsnow                              = 0,
 icloud                              = 0,
 num_soil_layers                     = 5,
 mp_zero_out                         = 0,
 /


 &fdda
 /

! &dynamics
! w_damping                           = 0,
! diff_opt                            = 1,
! km_opt                              = 4,
! diff_6th_opt                        = 0,
! diff_6th_factor                     = 0.12,
! base_temp                           = 290.
! damp_opt                            = 0,
! zdamp                               = 5000.,  5000.,  5000.,
! dampcoef                            = 0.01,   0.01,   0.01
! khdif                               = 0,      0,      0,
! kvdif                               = 0,      0,      0,
! non_hydrostatic                     = .true., .true., .true.,
! pd_moist                            = .false., .false., .false.,
! pd_scalar                           = .false., .false., .false.,
! /

 &dynamics
 dyn_opt                             = 2,
 rk_ord                              = 3,
 diff_opt                            = 2,
 km_opt                              = 2,
 damp_opt                            = 0,
 zdamp                               = 5000.,  5000.,  5000.,
 dampcoef                            = 0.2,    0.2,    0.2
 khdif                               = 0.05,   0.05,   0.05,
 kvdif                               = 0.05,   0.05,   0.05,
 smdiv                               = 0.1,    0.1,    0.1,
 emdiv                               = 0.01,   0.01,   0.01,
 epssm                               = 0.1,    0.1,    0.1
 mix_full_fields                     = .true., .true., .true.,
 non_hydrostatic                     = .true., .true., .true.,
 time_step_sound                     = 20,     20,     20,
 h_mom_adv_order                     = 5,      5,      5,
 v_mom_adv_order                     = 3,      3,      3,
 h_sca_adv_order                     = 5,      5,      5,
 v_sca_adv_order                     = 3,      3,      3,
 pd_moist                            = .false., .false., .false.,
 pd_scalar                           = .false., .false., .false.,
 pd_chem                             = .false., .false., .false.,
 pd_tke                              = .false., .false., .false., 
 /


 &bdy_control
 spec_bdy_width                      = 5,
 spec_zone                           = 1,
 relax_zone                          = 4,
 specified                           = .true., .false.,.false.,
 nested                              = .false., .true., .true.,
 /

 &grib2
 /

 &namelist_quilt
 nio_tasks_per_group = 0,
 nio_groups = 1,
 /

 &fire ! be sure to set sr_x,sr_y in domains-namelist (to set refinement in x,y)
 ifire              = 1,        ! integer, = 0: no fire, = 1: cc_fire
!fire_lat_init      =   40.,    ! real   , initial fire latitude (deg)
!fire_lon_init      = -105.,    ! real   , initial fire longitude (deg)
 fire_lat_init      = 6.75e-3,  ! real   , initial fire latitude (deg)
 fire_lon_init      = 6.75e-3,  ! real   , initial fire longitude (deg)
 fire_ign_time      = 2.0,      ! real   , time of fire ignition (s)
 fire_shape         = 0,        ! integer, initial fire shape
 fire_sprd_mdl      = 1,        ! integer, = 0: Macarthur, = 1: BEHAVE
 fire_crwn_hgt      = 15.,      ! real   , height of canopy crown (m)
 fire_ext_grnd      = 50.,      ! real   , extinction coeff ground fire
 fire_ext_crwn      = 50.,      ! real   , extinction coeff crown fire
 fire_fuel_read     = 1,        ! integer, = 1: fuels specified; = 2: read from file
 fire_fuel_cat      = 8,        ! integer, if specified which fuel category?
 /
 
