1000.00     293.15     0.00          
  10.00     293.25     0.00      6.29     0.00
  20.00     293.35     0.00      6.95     0.00
  30.00     293.44     0.00      7.36     0.00
  40.00     293.54     0.00      7.67     0.00
  50.00     293.64     0.00      7.92     0.00
  60.00     293.74     0.00      8.13     0.00
  70.00     293.84     0.00      8.31     0.00
  80.00     293.93     0.00      8.47     0.00
  90.00     294.03     0.00      8.61     0.00
 100.00     294.13     0.00      8.74     0.00
 110.00     294.23     0.00      8.86     0.00
 120.00     294.33     0.00      8.97     0.00
 130.00     294.42     0.00      9.08     0.00
 140.00     294.52     0.00      9.17     0.00
 150.00     294.62     0.00      9.26     0.00
 160.00     294.72     0.00      9.35     0.00
 170.00     294.82     0.00      9.43     0.00
 180.00     294.91     0.00      9.51     0.00
 190.00     295.01     0.00      9.58     0.00
 200.00     295.11     0.00      9.65     0.00
 210.00     295.21     0.00      9.72     0.00
 220.00     295.31     0.00      9.79     0.00
 230.00     295.41     0.00      9.85     0.00
 240.00     295.51     0.00      9.91     0.00
 250.00     295.60     0.00      9.97     0.00
 260.00     295.70     0.00     10.02     0.00
 270.00     295.80     0.00     10.08     0.00
 280.00     295.90     0.00     10.13     0.00
 290.00     296.00     0.00     10.18     0.00
 300.00     296.10     0.00     10.23     0.00
 310.00     296.20     0.00     10.28     0.00
 320.00     296.29     0.00     10.32     0.00
 330.00     296.39     0.00     10.37     0.00
 340.00     296.49     0.00     10.41     0.00
 350.00     296.59     0.00     10.46     0.00
 360.00     296.69     0.00     10.50     0.00
 370.00     296.79     0.00     10.54     0.00
 380.00     296.89     0.00     10.58     0.00
 390.00     296.99     0.00     10.62     0.00
 400.00     297.09     0.00     10.66     0.00
 410.00     297.19     0.00     10.70     0.00
 420.00     297.28     0.00     10.73     0.00
 430.00     297.38     0.00     10.77     0.00
 440.00     297.48     0.00     10.80     0.00
 450.00     297.58     0.00     10.84     0.00
 460.00     297.68     0.00     10.87     0.00
 470.00     297.78     0.00     10.91     0.00
 480.00     297.88     0.00     10.94     0.00
 490.00     297.98     0.00     10.97     0.00
 500.00     298.08     0.00     11.00     0.00
 510.00     298.18     0.00     11.03     0.00
 520.00     298.28     0.00     11.07     0.00
 530.00     298.38     0.00     11.10     0.00
 540.00     298.48     0.00     11.13     0.00
 550.00     298.58     0.00     11.15     0.00
 560.00     298.68     0.00     11.18     0.00
 570.00     298.77     0.00     11.21     0.00
 580.00     298.87     0.00     11.24     0.00
 590.00     298.97     0.00     11.27     0.00
 600.00     299.07     0.00     11.29     0.00
 610.00     299.17     0.00     11.32     0.00
 620.00     299.27     0.00     11.35     0.00
 630.00     299.37     0.00     11.37     0.00
 640.00     299.47     0.00     11.40     0.00
 650.00     299.57     0.00     11.42     0.00
 660.00     299.67     0.00     11.45     0.00
 670.00     299.77     0.00     11.47     0.00
 680.00     299.87     0.00     11.50     0.00
 690.00     299.97     0.00     11.52     0.00
 700.00     300.07     0.00     11.55     0.00
 710.00     300.17     0.00     11.57     0.00
 720.00     300.27     0.00     11.59     0.00
 730.00     300.37     0.00     11.61     0.00
 740.00     300.47     0.00     11.64     0.00
 750.00     300.57     0.00     11.66     0.00
 760.00     300.67     0.00     11.68     0.00
 770.00     300.77     0.00     11.70     0.00
 780.00     300.87     0.00     11.73     0.00
 790.00     300.97     0.00     11.75     0.00
 800.00     301.07     0.00     11.77     0.00
 810.00     301.18     0.00     11.79     0.00
 820.00     301.28     0.00     11.81     0.00
 830.00     301.38     0.00     11.83     0.00
 840.00     301.48     0.00     11.85     0.00
 850.00     301.58     0.00     11.87     0.00
 860.00     301.68     0.00     11.89     0.00
 870.00     301.78     0.00     11.91     0.00
 880.00     301.88     0.00     11.93     0.00
 890.00     301.98     0.00     11.95     0.00
 900.00     302.08     0.00     11.97     0.00
 910.00     302.18     0.00     11.99     0.00
 920.00     302.28     0.00     12.01     0.00
 930.00     302.38     0.00     12.02     0.00
 940.00     302.48     0.00     12.04     0.00
 950.00     302.58     0.00     12.06     0.00
 960.00     302.69     0.00     12.08     0.00
 970.00     302.79     0.00     12.10     0.00
 980.00     302.89     0.00     12.11     0.00
 990.00     302.99     0.00     12.13     0.00
1000.00     303.09     0.00     12.15     0.00
1010.00     303.19     0.00     12.17     0.00
1020.00     303.29     0.00     12.18     0.00
1030.00     303.39     0.00     12.20     0.00
1040.00     303.49     0.00     12.22     0.00
1050.00     303.59     0.00     12.23     0.00
1060.00     303.70     0.00     12.25     0.00
1070.00     303.80     0.00     12.27     0.00
1080.00     303.90     0.00     12.28     0.00
1090.00     304.00     0.00     12.30     0.00
1100.00     304.10     0.00     12.32     0.00
1110.00     304.20     0.00     12.33     0.00
1120.00     304.30     0.00     12.35     0.00
1130.00     304.41     0.00     12.36     0.00
1140.00     304.51     0.00     12.38     0.00
1150.00     304.61     0.00     12.39     0.00
1160.00     304.71     0.00     12.41     0.00
1170.00     304.81     0.00     12.42     0.00
1180.00     304.91     0.00     12.44     0.00
1190.00     305.02     0.00     12.45     0.00
1200.00     305.12     0.00     12.47     0.00
1210.00     305.22     0.00     12.48     0.00
1220.00     305.32     0.00     12.50     0.00
1230.00     305.42     0.00     12.51     0.00
1240.00     305.52     0.00     12.53     0.00
1250.00     305.63     0.00     12.54     0.00
1260.00     305.73     0.00     12.56     0.00
1270.00     305.83     0.00     12.57     0.00
1280.00     305.93     0.00     12.58     0.00
1290.00     306.03     0.00     12.60     0.00
1300.00     306.14     0.00     12.61     0.00
1310.00     306.24     0.00     12.63     0.00
1320.00     306.34     0.00     12.64     0.00
1330.00     306.44     0.00     12.65     0.00
1340.00     306.54     0.00     12.67     0.00
1350.00     306.65     0.00     12.68     0.00
1360.00     306.75     0.00     12.69     0.00
1370.00     306.85     0.00     12.71     0.00
1380.00     306.95     0.00     12.72     0.00
1390.00     307.06     0.00     12.73     0.00
1400.00     307.16     0.00     12.75     0.00
1410.00     307.26     0.00     12.76     0.00
1420.00     307.36     0.00     12.77     0.00
1430.00     307.47     0.00     12.79     0.00
1440.00     307.57     0.00     12.80     0.00
1450.00     307.67     0.00     12.81     0.00
1460.00     307.77     0.00     12.82     0.00
1470.00     307.88     0.00     12.84     0.00
1480.00     307.98     0.00     12.85     0.00
1490.00     308.08     0.00     12.86     0.00
1500.00     308.18     0.00     12.87     0.00
1510.00     308.29     0.00     12.89     0.00
1520.00     308.39     0.00     12.90     0.00
1530.00     308.49     0.00     12.91     0.00
1540.00     308.60     0.00     12.92     0.00
1550.00     308.70     0.00     12.93     0.00
1560.00     308.80     0.00     12.95     0.00
1570.00     308.90     0.00     12.96     0.00
1580.00     309.01     0.00     12.97     0.00
1590.00     309.11     0.00     12.98     0.00
1600.00     309.21     0.00     12.99     0.00
1610.00     309.32     0.00     13.00     0.00
1620.00     309.42     0.00     13.02     0.00
1630.00     309.52     0.00     13.03     0.00
1640.00     309.63     0.00     13.04     0.00
1650.00     309.73     0.00     13.05     0.00
1660.00     309.83     0.00     13.06     0.00
1670.00     309.94     0.00     13.07     0.00
1680.00     310.04     0.00     13.08     0.00
1690.00     310.14     0.00     13.09     0.00
1700.00     310.25     0.00     13.11     0.00
1710.00     310.35     0.00     13.12     0.00
1720.00     310.45     0.00     13.13     0.00
1730.00     310.56     0.00     13.14     0.00
1740.00     310.66     0.00     13.15     0.00
1750.00     310.76     0.00     13.16     0.00
1760.00     310.87     0.00     13.17     0.00
1770.00     310.97     0.00     13.18     0.00
1780.00     311.08     0.00     13.19     0.00
1790.00     311.18     0.00     13.20     0.00
1800.00     311.28     0.00     13.21     0.00
1810.00     311.39     0.00     13.22     0.00
1820.00     311.49     0.00     13.23     0.00
1830.00     311.59     0.00     13.24     0.00
1840.00     311.70     0.00     13.25     0.00
1850.00     311.80     0.00     13.26     0.00
1860.00     311.91     0.00     13.28     0.00
1870.00     312.01     0.00     13.29     0.00
1880.00     312.11     0.00     13.30     0.00
1890.00     312.22     0.00     13.31     0.00
1900.00     312.32     0.00     13.32     0.00
1910.00     312.43     0.00     13.33     0.00
1920.00     312.53     0.00     13.34     0.00
1930.00     312.63     0.00     13.35     0.00
1940.00     312.74     0.00     13.36     0.00
1950.00     312.84     0.00     13.37     0.00
1960.00     312.95     0.00     13.37     0.00
1970.00     313.05     0.00     13.38     0.00
1980.00     313.16     0.00     13.39     0.00
1990.00     313.26     0.00     13.40     0.00
2000.00     313.37     0.00     13.41     0.00
2010.00     313.47     0.00     13.42     0.00
2020.00     313.57     0.00     13.43     0.00
2030.00     313.68     0.00     13.44     0.00
2040.00     313.78     0.00     13.45     0.00
2050.00     313.89     0.00     13.46     0.00
2060.00     313.99     0.00     13.47     0.00
2070.00     314.10     0.00     13.48     0.00
2080.00     314.20     0.00     13.49     0.00
2090.00     314.31     0.00     13.50     0.00
2100.00     314.41     0.00     13.51     0.00
2110.00     314.52     0.00     13.52     0.00
2120.00     314.62     0.00     13.53     0.00
2130.00     314.73     0.00     13.53     0.00
2140.00     314.83     0.00     13.54     0.00
2150.00     314.94     0.00     13.55     0.00
2160.00     315.04     0.00     13.56     0.00
2170.00     315.15     0.00     13.57     0.00
2180.00     315.25     0.00     13.58     0.00
2190.00     315.36     0.00     13.59     0.00
2200.00     315.46     0.00     13.60     0.00
2210.00     315.57     0.00     13.61     0.00
2220.00     315.67     0.00     13.61     0.00
2230.00     315.78     0.00     13.62     0.00
2240.00     315.88     0.00     13.63     0.00
2250.00     315.99     0.00     13.64     0.00
2260.00     316.09     0.00     13.65     0.00
2270.00     316.20     0.00     13.66     0.00
2280.00     316.30     0.00     13.67     0.00
2290.00     316.41     0.00     13.68     0.00
2300.00     316.52     0.00     13.68     0.00
2310.00     316.62     0.00     13.69     0.00
2320.00     316.73     0.00     13.70     0.00
2330.00     316.83     0.00     13.71     0.00
2340.00     316.94     0.00     13.72     0.00
2350.00     317.04     0.00     13.73     0.00
2360.00     317.15     0.00     13.73     0.00
2370.00     317.26     0.00     13.74     0.00
2380.00     317.36     0.00     13.75     0.00
2390.00     317.47     0.00     13.76     0.00
2400.00     317.57     0.00     13.77     0.00
2410.00     317.68     0.00     13.78     0.00
2420.00     317.78     0.00     13.78     0.00
2430.00     317.89     0.00     13.79     0.00
2440.00     318.00     0.00     13.80     0.00
2450.00     318.10     0.00     13.81     0.00
2460.00     318.21     0.00     13.82     0.00
2470.00     318.31     0.00     13.82     0.00
2480.00     318.42     0.00     13.83     0.00
2490.00     318.53     0.00     13.84     0.00
2500.00     318.63     0.00     13.85     0.00
2510.00     318.74     0.00     13.86     0.00
2520.00     318.85     0.00     13.86     0.00
2530.00     318.95     0.00     13.87     0.00
2540.00     319.06     0.00     13.88     0.00
2550.00     319.16     0.00     13.89     0.00
2560.00     319.27     0.00     13.89     0.00
2570.00     319.38     0.00     13.90     0.00
2580.00     319.48     0.00     13.91     0.00
2590.00     319.59     0.00     13.92     0.00
2600.00     319.70     0.00     13.93     0.00
2610.00     319.80     0.00     13.93     0.00
2620.00     319.91     0.00     13.94     0.00
2630.00     320.02     0.00     13.95     0.00
2640.00     320.12     0.00     13.96     0.00
2650.00     320.23     0.00     13.96     0.00
2660.00     320.34     0.00     13.97     0.00
2670.00     320.44     0.00     13.98     0.00
2680.00     320.55     0.00     13.99     0.00
2690.00     320.66     0.00     13.99     0.00
2700.00     320.77     0.00     14.00     0.00
2710.00     320.87     0.00     14.01     0.00
2720.00     320.98     0.00     14.02     0.00
2730.00     321.09     0.00     14.02     0.00
2740.00     321.19     0.00     14.03     0.00
2750.00     321.30     0.00     14.04     0.00
2760.00     321.41     0.00     14.05     0.00
2770.00     321.51     0.00     14.05     0.00
2780.00     321.62     0.00     14.06     0.00
2790.00     321.73     0.00     14.07     0.00
2800.00     321.84     0.00     14.07     0.00
2810.00     321.94     0.00     14.08     0.00
2820.00     322.05     0.00     14.09     0.00
2830.00     322.16     0.00     14.10     0.00
2840.00     322.27     0.00     14.10     0.00
2850.00     322.37     0.00     14.11     0.00
2860.00     322.48     0.00     14.12     0.00
2870.00     322.59     0.00     14.12     0.00
2880.00     322.70     0.00     14.13     0.00
2890.00     322.80     0.00     14.14     0.00
2900.00     322.91     0.00     14.14     0.00
2910.00     323.02     0.00     14.15     0.00
2920.00     323.13     0.00     14.16     0.00
2930.00     323.23     0.00     14.17     0.00
2940.00     323.34     0.00     14.17     0.00
2950.00     323.45     0.00     14.18     0.00
2960.00     323.56     0.00     14.19     0.00
2970.00     323.67     0.00     14.19     0.00
2980.00     323.77     0.00     14.20     0.00
2990.00     323.88     0.00     14.21     0.00
3000.00     323.99     0.00     14.21     0.00
3010.00     324.10     0.00     14.22     0.00
3020.00     324.21     0.00     14.23     0.00
3030.00     324.31     0.00     14.23     0.00
3040.00     324.42     0.00     14.24     0.00
3050.00     324.53     0.00     14.25     0.00
3060.00     324.64     0.00     14.25     0.00
3070.00     324.75     0.00     14.26     0.00
3080.00     324.86     0.00     14.27     0.00
3090.00     324.96     0.00     14.27     0.00
3100.00     325.07     0.00     14.28     0.00
3110.00     325.18     0.00     14.29     0.00
3120.00     325.29     0.00     14.29     0.00
3130.00     325.40     0.00     14.30     0.00
3140.00     325.51     0.00     14.31     0.00
3150.00     325.61     0.00     14.31     0.00
3160.00     325.72     0.00     14.32     0.00
3170.00     325.83     0.00     14.33     0.00
3180.00     325.94     0.00     14.33     0.00
3190.00     326.05     0.00     14.34     0.00
3200.00     326.16     0.00     14.35     0.00
3210.00     326.27     0.00     14.35     0.00
3220.00     326.38     0.00     14.36     0.00
3230.00     326.48     0.00     14.36     0.00
3240.00     326.59     0.00     14.37     0.00
3250.00     326.70     0.00     14.38     0.00
3260.00     326.81     0.00     14.38     0.00
3270.00     326.92     0.00     14.39     0.00
3280.00     327.03     0.00     14.40     0.00
3290.00     327.14     0.00     14.40     0.00
3300.00     327.25     0.00     14.41     0.00
3310.00     327.36     0.00     14.41     0.00
3320.00     327.47     0.00     14.42     0.00
3330.00     327.57     0.00     14.43     0.00
3340.00     327.68     0.00     14.43     0.00
3350.00     327.79     0.00     14.44     0.00
3360.00     327.90     0.00     14.45     0.00
3370.00     328.01     0.00     14.45     0.00
3380.00     328.12     0.00     14.46     0.00
3390.00     328.23     0.00     14.46     0.00
3400.00     328.34     0.00     14.47     0.00
3410.00     328.45     0.00     14.48     0.00
3420.00     328.56     0.00     14.48     0.00
3430.00     328.67     0.00     14.49     0.00
3440.00     328.78     0.00     14.49     0.00
3450.00     328.89     0.00     14.50     0.00
3460.00     329.00     0.00     14.51     0.00
3470.00     329.11     0.00     14.51     0.00
3480.00     329.22     0.00     14.52     0.00
3490.00     329.33     0.00     14.52     0.00
3500.00     329.44     0.00     14.53     0.00
3510.00     329.55     0.00     14.54     0.00
3520.00     329.66     0.00     14.54     0.00
3530.00     329.77     0.00     14.55     0.00
3540.00     329.88     0.00     14.55     0.00
3550.00     329.99     0.00     14.56     0.00
3560.00     330.10     0.00     14.57     0.00
3570.00     330.21     0.00     14.57     0.00
3580.00     330.32     0.00     14.58     0.00
3590.00     330.43     0.00     14.58     0.00
3600.00     330.54     0.00     14.59     0.00
3610.00     330.65     0.00     14.59     0.00
3620.00     330.76     0.00     14.60     0.00
3630.00     330.87     0.00     14.61     0.00
3640.00     330.98     0.00     14.61     0.00
3650.00     331.09     0.00     14.62     0.00
3660.00     331.20     0.00     14.62     0.00
3670.00     331.31     0.00     14.63     0.00
3680.00     331.42     0.00     14.63     0.00
3690.00     331.53     0.00     14.64     0.00
3700.00     331.64     0.00     14.65     0.00
3710.00     331.75     0.00     14.65     0.00
3720.00     331.86     0.00     14.66     0.00
3730.00     331.97     0.00     14.66     0.00
3740.00     332.08     0.00     14.67     0.00
3750.00     332.19     0.00     14.67     0.00
3760.00     332.30     0.00     14.68     0.00
3770.00     332.42     0.00     14.68     0.00
3780.00     332.53     0.00     14.69     0.00
3790.00     332.64     0.00     14.70     0.00
3800.00     332.75     0.00     14.70     0.00
3810.00     332.86     0.00     14.71     0.00
3820.00     332.97     0.00     14.71     0.00
3830.00     333.08     0.00     14.72     0.00
3840.00     333.19     0.00     14.72     0.00
3850.00     333.30     0.00     14.73     0.00
3860.00     333.41     0.00     14.73     0.00
3870.00     333.53     0.00     14.74     0.00
3880.00     333.64     0.00     14.75     0.00
3890.00     333.75     0.00     14.75     0.00
3900.00     333.86     0.00     14.76     0.00
3910.00     333.97     0.00     14.76     0.00
3920.00     334.08     0.00     14.77     0.00
3930.00     334.19     0.00     14.77     0.00
3940.00     334.31     0.00     14.78     0.00
3950.00     334.42     0.00     14.78     0.00
3960.00     334.53     0.00     14.79     0.00
3970.00     334.64     0.00     14.79     0.00
3980.00     334.75     0.00     14.80     0.00
3990.00     334.86     0.00     14.80     0.00
4000.00     334.97     0.00     14.81     0.00
4010.00     335.09     0.00     14.81     0.00
4020.00     335.20     0.00     14.82     0.00
4030.00     335.31     0.00     14.83     0.00
4040.00     335.42     0.00     14.83     0.00
4050.00     335.53     0.00     14.84     0.00
4060.00     335.65     0.00     14.84     0.00
4070.00     335.76     0.00     14.85     0.00
4080.00     335.87     0.00     14.85     0.00
4090.00     335.98     0.00     14.86     0.00
4100.00     336.09     0.00     14.86     0.00
4110.00     336.21     0.00     14.87     0.00
4120.00     336.32     0.00     14.87     0.00
4130.00     336.43     0.00     14.88     0.00
4140.00     336.54     0.00     14.88     0.00
4150.00     336.65     0.00     14.89     0.00
4160.00     336.77     0.00     14.89     0.00
4170.00     336.88     0.00     14.90     0.00
4180.00     336.99     0.00     14.90     0.00
4190.00     337.10     0.00     14.91     0.00
4200.00     337.22     0.00     14.91     0.00
4210.00     337.33     0.00     14.92     0.00
4220.00     337.44     0.00     14.92     0.00
4230.00     337.55     0.00     14.93     0.00
4240.00     337.67     0.00     14.93     0.00
4250.00     337.78     0.00     14.94     0.00
4260.00     337.89     0.00     14.94     0.00
4270.00     338.00     0.00     14.95     0.00
4280.00     338.12     0.00     14.95     0.00
4290.00     338.23     0.00     14.96     0.00
4300.00     338.34     0.00     14.96     0.00
4310.00     338.45     0.00     14.97     0.00
4320.00     338.57     0.00     14.97     0.00
4330.00     338.68     0.00     14.98     0.00
4340.00     338.79     0.00     14.98     0.00
4350.00     338.91     0.00     14.99     0.00
4360.00     339.02     0.00     14.99     0.00
4370.00     339.13     0.00     15.00     0.00
4380.00     339.25     0.00     15.00     0.00
4390.00     339.36     0.00     15.01     0.00
4400.00     339.47     0.00     15.01     0.00
4410.00     339.59     0.00     15.02     0.00
4420.00     339.70     0.00     15.02     0.00
4430.00     339.81     0.00     15.03     0.00
4440.00     339.93     0.00     15.03     0.00
4450.00     340.04     0.00     15.04     0.00
4460.00     340.15     0.00     15.04     0.00
4470.00     340.27     0.00     15.05     0.00
4480.00     340.38     0.00     15.05     0.00
4490.00     340.49     0.00     15.06     0.00
4500.00     340.61     0.00     15.06     0.00
4510.00     340.72     0.00     15.07     0.00
4520.00     340.83     0.00     15.07     0.00
4530.00     340.95     0.00     15.08     0.00
4540.00     341.06     0.00     15.08     0.00
4550.00     341.17     0.00     15.08     0.00
4560.00     341.29     0.00     15.09     0.00
4570.00     341.40     0.00     15.09     0.00
4580.00     341.52     0.00     15.10     0.00
4590.00     341.63     0.00     15.10     0.00
4600.00     341.74     0.00     15.11     0.00
4610.00     341.86     0.00     15.11     0.00
4620.00     341.97     0.00     15.12     0.00
4630.00     342.09     0.00     15.12     0.00
4640.00     342.20     0.00     15.13     0.00
4650.00     342.31     0.00     15.13     0.00
4660.00     342.43     0.00     15.14     0.00
4670.00     342.54     0.00     15.14     0.00
4680.00     342.66     0.00     15.15     0.00
4690.00     342.77     0.00     15.15     0.00
4700.00     342.88     0.00     15.15     0.00
4710.00     343.00     0.00     15.16     0.00
4720.00     343.11     0.00     15.16     0.00
4730.00     343.23     0.00     15.17     0.00
4740.00     343.34     0.00     15.17     0.00
4750.00     343.46     0.00     15.18     0.00
4760.00     343.57     0.00     15.18     0.00
4770.00     343.69     0.00     15.19     0.00
4780.00     343.80     0.00     15.19     0.00
4790.00     343.92     0.00     15.20     0.00
4800.00     344.03     0.00     15.20     0.00
4810.00     344.14     0.00     15.21     0.00
4820.00     344.26     0.00     15.21     0.00
4830.00     344.37     0.00     15.21     0.00
4840.00     344.49     0.00     15.22     0.00
4850.00     344.60     0.00     15.22     0.00
4860.00     344.72     0.00     15.23     0.00
4870.00     344.83     0.00     15.23     0.00
4880.00     344.95     0.00     15.24     0.00
4890.00     345.06     0.00     15.24     0.00
4900.00     345.18     0.00     15.25     0.00
4910.00     345.29     0.00     15.25     0.00
4920.00     345.41     0.00     15.25     0.00
4930.00     345.52     0.00     15.26     0.00
4940.00     345.64     0.00     15.26     0.00
4950.00     345.75     0.00     15.27     0.00
4960.00     345.87     0.00     15.27     0.00
4970.00     345.99     0.00     15.28     0.00
4980.00     346.10     0.00     15.28     0.00
4990.00     346.22     0.00     15.29     0.00
5000.00     346.33     0.00     15.29     0.00
5010.00     346.45     0.00     15.29     0.00
5020.00     346.56     0.00     15.30     0.00
5030.00     346.68     0.00     15.30     0.00
5040.00     346.79     0.00     15.31     0.00
5050.00     346.91     0.00     15.31     0.00
5060.00     347.03     0.00     15.32     0.00
5070.00     347.14     0.00     15.32     0.00
5080.00     347.26     0.00     15.32     0.00
5090.00     347.37     0.00     15.33     0.00
5100.00     347.49     0.00     15.33     0.00
5110.00     347.60     0.00     15.34     0.00
5120.00     347.72     0.00     15.34     0.00
5130.00     347.84     0.00     15.35     0.00
5140.00     347.95     0.00     15.35     0.00
5150.00     348.07     0.00     15.35     0.00
5160.00     348.18     0.00     15.36     0.00
5170.00     348.30     0.00     15.36     0.00
5180.00     348.42     0.00     15.37     0.00
5190.00     348.53     0.00     15.37     0.00
5200.00     348.65     0.00     15.38     0.00
5210.00     348.77     0.00     15.38     0.00
5220.00     348.88     0.00     15.38     0.00
5230.00     349.00     0.00     15.39     0.00
5240.00     349.11     0.00     15.39     0.00
5250.00     349.23     0.00     15.40     0.00
5260.00     349.35     0.00     15.40     0.00
5270.00     349.46     0.00     15.40     0.00
5280.00     349.58     0.00     15.41     0.00
5290.00     349.70     0.00     15.41     0.00
5300.00     349.81     0.00     15.42     0.00
5310.00     349.93     0.00     15.42     0.00
5320.00     350.05     0.00     15.43     0.00
5330.00     350.16     0.00     15.43     0.00
5340.00     350.28     0.00     15.43     0.00
5350.00     350.40     0.00     15.44     0.00
5360.00     350.51     0.00     15.44     0.00
5370.00     350.63     0.00     15.45     0.00
5380.00     350.75     0.00     15.45     0.00
5390.00     350.86     0.00     15.45     0.00
5400.00     350.98     0.00     15.46     0.00
5410.00     351.10     0.00     15.46     0.00
5420.00     351.22     0.00     15.47     0.00
5430.00     351.33     0.00     15.47     0.00
5440.00     351.45     0.00     15.47     0.00
5450.00     351.57     0.00     15.48     0.00
5460.00     351.68     0.00     15.48     0.00
5470.00     351.80     0.00     15.49     0.00
5480.00     351.92     0.00     15.49     0.00
5490.00     352.04     0.00     15.49     0.00
5500.00     352.15     0.00     15.50     0.00
5510.00     352.27     0.00     15.50     0.00
5520.00     352.39     0.00     15.51     0.00
5530.00     352.51     0.00     15.51     0.00
5540.00     352.62     0.00     15.52     0.00
5550.00     352.74     0.00     15.52     0.00
5560.00     352.86     0.00     15.52     0.00
5570.00     352.98     0.00     15.53     0.00
5580.00     353.09     0.00     15.53     0.00
5590.00     353.21     0.00     15.53     0.00
5600.00     353.33     0.00     15.54     0.00
5610.00     353.45     0.00     15.54     0.00
5620.00     353.57     0.00     15.55     0.00
5630.00     353.68     0.00     15.55     0.00
5640.00     353.80     0.00     15.55     0.00
5650.00     353.92     0.00     15.56     0.00
5660.00     354.04     0.00     15.56     0.00
5670.00     354.16     0.00     15.57     0.00
5680.00     354.27     0.00     15.57     0.00
5690.00     354.39     0.00     15.57     0.00
5700.00     354.51     0.00     15.58     0.00
5710.00     354.63     0.00     15.58     0.00
5720.00     354.75     0.00     15.59     0.00
5730.00     354.87     0.00     15.59     0.00
5740.00     354.98     0.00     15.59     0.00
5750.00     355.10     0.00     15.60     0.00
5760.00     355.22     0.00     15.60     0.00
5770.00     355.34     0.00     15.61     0.00
5780.00     355.46     0.00     15.61     0.00
5790.00     355.58     0.00     15.61     0.00
5800.00     355.69     0.00     15.62     0.00
5810.00     355.81     0.00     15.62     0.00
5820.00     355.93     0.00     15.62     0.00
5830.00     356.05     0.00     15.63     0.00
5840.00     356.17     0.00     15.63     0.00
5850.00     356.29     0.00     15.64     0.00
5860.00     356.41     0.00     15.64     0.00
5870.00     356.53     0.00     15.64     0.00
5880.00     356.64     0.00     15.65     0.00
5890.00     356.76     0.00     15.65     0.00
5900.00     356.88     0.00     15.66     0.00
5910.00     357.00     0.00     15.66     0.00
5920.00     357.12     0.00     15.66     0.00
5930.00     357.24     0.00     15.67     0.00
5940.00     357.36     0.00     15.67     0.00
5950.00     357.48     0.00     15.67     0.00
5960.00     357.60     0.00     15.68     0.00
5970.00     357.72     0.00     15.68     0.00
5980.00     357.84     0.00     15.69     0.00
5990.00     357.95     0.00     15.69     0.00
6000.00     358.07     0.00     15.69     0.00 
