1000.00    293.15    4.53        
  10.00    293.25    4.53     6.29    0.00
  20.00    293.35    4.54     6.95    0.00
  30.00    293.44    4.54     7.36    0.00
  40.00    293.54    4.55     7.67    0.00
  50.00    293.64    4.55     7.92    0.00
  60.00    293.74    4.56     8.13    0.00
  70.00    293.84    4.56     8.31    0.00
  80.00    293.93    4.57     8.47    0.00
  90.00    294.03    4.57     8.61    0.00
 100.00    294.13    4.58     8.74    0.00
 110.00    294.23    4.58     8.86    0.00
 120.00    294.33    4.59     8.97    0.00
 130.00    294.42    4.59     9.08    0.00
 140.00    294.52    4.60     9.17    0.00
 150.00    294.62    4.60     9.26    0.00
 160.00    294.72    4.61     9.35    0.00
 170.00    294.82    4.62     9.43    0.00
 180.00    294.91    4.62     9.51    0.00
 190.00    295.01    4.63     9.58    0.00
 200.00    295.11    4.63     9.65    0.00
 210.00    295.21    4.64     9.72    0.00
 220.00    295.31    4.64     9.79    0.00
 230.00    295.41    4.65     9.85    0.00
 240.00    295.51    4.65     9.91    0.00
 250.00    295.60    4.66     9.97    0.00
 260.00    295.70    4.66    10.02    0.00
 270.00    295.80    4.67    10.08    0.00
 280.00    295.90    4.68    10.13    0.00
 290.00    296.00    4.68    10.18    0.00
 300.00    296.10    4.69    10.23    0.00
 310.00    296.20    4.69    10.28    0.00
 320.00    296.29    4.70    10.32    0.00
 330.00    296.39    4.70    10.37    0.00
 340.00    296.49    4.71    10.41    0.00
 350.00    296.59    4.71    10.46    0.00
 360.00    296.69    4.72    10.50    0.00
 370.00    296.79    4.72    10.54    0.00
 380.00    296.89    4.73    10.58    0.00
 390.00    296.99    4.74    10.62    0.00
 400.00    297.09    4.74    10.66    0.00
 410.00    297.19    4.75    10.70    0.00
 420.00    297.28    4.75    10.73    0.00
 430.00    297.38    4.76    10.77    0.00
 440.00    297.48    4.76    10.80    0.00
 450.00    297.58    4.77    10.84    0.00
 460.00    297.68    4.77    10.87    0.00
 470.00    297.78    4.78    10.91    0.00
 480.00    297.88    4.79    10.94    0.00
 490.00    297.98    4.79    10.97    0.00
 500.00    298.08    4.80    11.00    0.00
 510.00    298.18    4.80    11.03    0.00
 520.00    298.28    4.81    11.07    0.00
 530.00    298.38    4.81    11.10    0.00
 540.00    298.48    4.82    11.13    0.00
 550.00    298.58    4.83    11.15    0.00
 560.00    298.68    4.83    11.18    0.00
 570.00    298.77    4.84    11.21    0.00
 580.00    298.87    4.84    11.24    0.00
 590.00    298.97    4.85    11.27    0.00
 600.00    299.07    4.85    11.29    0.00
 610.00    299.17    4.86    11.32    0.00
 620.00    299.27    4.86    11.35    0.00
 630.00    299.37    4.87    11.37    0.00
 640.00    299.47    4.88    11.40    0.00
 650.00    299.57    4.88    11.42    0.00
 660.00    299.67    4.89    11.45    0.00
 670.00    299.77    4.89    11.47    0.00
 680.00    299.87    4.90    11.50    0.00
 690.00    299.97    4.90    11.52    0.00
 700.00    300.07    4.91    11.55    0.00
 710.00    300.17    4.92    11.57    0.00
 720.00    300.27    4.92    11.59    0.00
 730.00    300.37    4.93    11.61    0.00
 740.00    300.47    4.93    11.64    0.00
 750.00    300.57    4.94    11.66    0.00
 760.00    300.67    4.95    11.68    0.00
 770.00    300.77    4.95    11.70    0.00
 780.00    300.87    4.96    11.73    0.00
 790.00    300.97    4.96    11.75    0.00
 800.00    301.07    4.97    11.77    0.00
 810.00    301.18    4.97    11.79    0.00
 820.00    301.28    4.98    11.81    0.00
 830.00    301.38    4.99    11.83    0.00
 840.00    301.48    4.99    11.85    0.00
 850.00    301.58    5.00    11.87    0.00
 860.00    301.68    5.00    11.89    0.00
 870.00    301.78    5.01    11.91    0.00
 880.00    301.88    5.02    11.93    0.00
 890.00    301.98    5.02    11.95    0.00
 900.00    302.08    5.03    11.97    0.00
 910.00    302.18    5.03    11.99    0.00
 920.00    302.28    5.04    12.01    0.00
 930.00    302.38    5.04    12.02    0.00
 940.00    302.48    5.05    12.04    0.00
 950.00    302.58    5.06    12.06    0.00
 960.00    302.69    5.06    12.08    0.00
 970.00    302.79    5.07    12.10    0.00
 980.00    302.89    5.07    12.11    0.00
 990.00    302.99    5.08    12.13    0.00
1000.00    303.09    5.09    12.15    0.00
1010.00    303.19    5.09    12.17    0.00
1020.00    303.29    5.10    12.18    0.00
1030.00    303.39    5.10    12.20    0.00
1040.00    303.49    5.11    12.22    0.00
1050.00    303.59    5.12    12.23    0.00
1060.00    303.70    5.12    12.25    0.00
1070.00    303.80    5.13    12.27    0.00
1080.00    303.90    5.13    12.28    0.00
1090.00    304.00    5.14    12.30    0.00
1100.00    304.10    5.15    12.32    0.00
1110.00    304.20    5.15    12.33    0.00
1120.00    304.30    5.16    12.35    0.00
1130.00    304.41    5.16    12.36    0.00
1140.00    304.51    5.17    12.38    0.00
1150.00    304.61    5.18    12.39    0.00
1160.00    304.71    5.18    12.41    0.00
1170.00    304.81    5.19    12.42    0.00
1180.00    304.91    5.19    12.44    0.00
1190.00    305.02    5.20    12.45    0.00
1200.00    305.12    5.21    12.47    0.00
1210.00    305.22    5.21    12.48    0.00
1220.00    305.32    5.22    12.50    0.00
1230.00    305.42    5.22    12.51    0.00
1240.00    305.52    5.23    12.53    0.00
1250.00    305.63    5.24    12.54    0.00
1260.00    305.73    5.24    12.56    0.00
1270.00    305.83    5.25    12.57    0.00
1280.00    305.93    5.26    12.58    0.00
1290.00    306.03    5.26    12.60    0.00
1300.00    306.14    5.27    12.61    0.00
1310.00    306.24    5.27    12.63    0.00
1320.00    306.34    5.28    12.64    0.00
1330.00    306.44    5.29    12.65    0.00
1340.00    306.54    5.29    12.67    0.00
1350.00    306.65    5.30    12.68    0.00
1360.00    306.75    5.30    12.69    0.00
1370.00    306.85    5.31    12.71    0.00
1380.00    306.95    5.32    12.72    0.00
1390.00    307.06    5.32    12.73    0.00
1400.00    307.16    5.33    12.75    0.00
1410.00    307.26    5.34    12.76    0.00
1420.00    307.36    5.34    12.77    0.00
1430.00    307.47    5.35    12.79    0.00
1440.00    307.57    5.35    12.80    0.00
1450.00    307.67    5.36    12.81    0.00
1460.00    307.77    5.37    12.82    0.00
1470.00    307.88    5.37    12.84    0.00
1480.00    307.98    5.38    12.85    0.00
1490.00    308.08    5.39    12.86    0.00
1500.00    308.18    5.39    12.87    0.00
1510.00    308.29    5.40    12.89    0.00
1520.00    308.39    5.40    12.90    0.00
1530.00    308.49    5.41    12.91    0.00
1540.00    308.60    5.42    12.92    0.00
1550.00    308.70    5.42    12.93    0.00
1560.00    308.80    5.43    12.95    0.00
1570.00    308.90    5.44    12.96    0.00
1580.00    309.01    5.44    12.97    0.00
1590.00    309.11    5.45    12.98    0.00
1600.00    309.21    5.46    12.99    0.00
1610.00    309.32    5.46    13.00    0.00
1620.00    309.42    5.47    13.02    0.00
1630.00    309.52    5.47    13.03    0.00
1640.00    309.63    5.48    13.04    0.00
1650.00    309.73    5.49    13.05    0.00
1660.00    309.83    5.49    13.06    0.00
1670.00    309.94    5.50    13.07    0.00
1680.00    310.04    5.51    13.08    0.00
1690.00    310.14    5.51    13.09    0.00
1700.00    310.25    5.52    13.11    0.00
1710.00    310.35    5.53    13.12    0.00
1720.00    310.45    5.53    13.13    0.00
1730.00    310.56    5.54    13.14    0.00
1740.00    310.66    5.55    13.15    0.00
1750.00    310.76    5.55    13.16    0.00
1760.00    310.87    5.56    13.17    0.00
1770.00    310.97    5.57    13.18    0.00
1780.00    311.08    5.57    13.19    0.00
1790.00    311.18    5.58    13.20    0.00
1800.00    311.28    5.58    13.21    0.00
1810.00    311.39    5.59    13.22    0.00
1820.00    311.49    5.60    13.23    0.00
1830.00    311.59    5.60    13.24    0.00
1840.00    311.70    5.61    13.25    0.00
1850.00    311.80    5.62    13.26    0.00
1860.00    311.91    5.62    13.28    0.00
1870.00    312.01    5.63    13.29    0.00
1880.00    312.11    5.64    13.30    0.00
1890.00    312.22    5.64    13.31    0.00
1900.00    312.32    5.65    13.32    0.00
1910.00    312.43    5.66    13.33    0.00
1920.00    312.53    5.66    13.34    0.00
1930.00    312.63    5.67    13.35    0.00
1940.00    312.74    5.68    13.36    0.00
1950.00    312.84    5.68    13.37    0.00
1960.00    312.95    5.69    13.37    0.00
1970.00    313.05    5.70    13.38    0.00
1980.00    313.16    5.70    13.39    0.00
1990.00    313.26    5.71    13.40    0.00
2000.00    313.37    5.72    13.41    0.00
2010.00    313.47    5.72    13.42    0.00
2020.00    313.57    5.73    13.43    0.00
2030.00    313.68    5.74    13.44    0.00
2040.00    313.78    5.74    13.45    0.00
2050.00    313.89    5.75    13.46    0.00
2060.00    313.99    5.76    13.47    0.00
2070.00    314.10    5.76    13.48    0.00
2080.00    314.20    5.77    13.49    0.00
2090.00    314.31    5.78    13.50    0.00
2100.00    314.41    5.78    13.51    0.00
2110.00    314.52    5.79    13.52    0.00
2120.00    314.62    5.80    13.53    0.00
2130.00    314.73    5.80    13.53    0.00
2140.00    314.83    5.81    13.54    0.00
2150.00    314.94    5.82    13.55    0.00
2160.00    315.04    5.83    13.56    0.00
2170.00    315.15    5.83    13.57    0.00
2180.00    315.25    5.84    13.58    0.00
2190.00    315.36    5.85    13.59    0.00
2200.00    315.46    5.85    13.60    0.00
2210.00    315.57    5.86    13.61    0.00
2220.00    315.67    5.87    13.61    0.00
2230.00    315.78    5.87    13.62    0.00
2240.00    315.88    5.88    13.63    0.00
2250.00    315.99    5.89    13.64    0.00
2260.00    316.09    5.89    13.65    0.00
2270.00    316.20    5.90    13.66    0.00
2280.00    316.30    5.91    13.67    0.00
2290.00    316.41    5.91    13.68    0.00
2300.00    316.52    5.92    13.68    0.00
2310.00    316.62    5.93    13.69    0.00
2320.00    316.73    5.94    13.70    0.00
2330.00    316.83    5.94    13.71    0.00
2340.00    316.94    5.95    13.72    0.00
2350.00    317.04    5.96    13.73    0.00
2360.00    317.15    5.96    13.73    0.00
2370.00    317.26    5.97    13.74    0.00
2380.00    317.36    5.98    13.75    0.00
2390.00    317.47    5.98    13.76    0.00
2400.00    317.57    5.99    13.77    0.00
2410.00    317.68    6.00    13.78    0.00
2420.00    317.78    6.00    13.78    0.00
2430.00    317.89    6.01    13.79    0.00
2440.00    318.00    6.02    13.80    0.00
2450.00    318.10    6.03    13.81    0.00
2460.00    318.21    6.03    13.82    0.00
2470.00    318.31    6.04    13.82    0.00
2480.00    318.42    6.05    13.83    0.00
2490.00    318.53    6.05    13.84    0.00
2500.00    318.63    6.06    13.85    0.00
2510.00    318.74    6.07    13.86    0.00
2520.00    318.85    6.08    13.86    0.00
2530.00    318.95    6.08    13.87    0.00
2540.00    319.06    6.09    13.88    0.00
2550.00    319.16    6.10    13.89    0.00
2560.00    319.27    6.10    13.89    0.00
2570.00    319.38    6.11    13.90    0.00
2580.00    319.48    6.12    13.91    0.00
2590.00    319.59    6.13    13.92    0.00
2600.00    319.70    6.13    13.93    0.00
2610.00    319.80    6.14    13.93    0.00
2620.00    319.91    6.15    13.94    0.00
2630.00    320.02    6.15    13.95    0.00
2640.00    320.12    6.16    13.96    0.00
2650.00    320.23    6.17    13.96    0.00
2660.00    320.34    6.18    13.97    0.00
2670.00    320.44    6.18    13.98    0.00
2680.00    320.55    6.19    13.99    0.00
2690.00    320.66    6.20    13.99    0.00
2700.00    320.77    6.21    14.00    0.00
2710.00    320.87    6.21    14.01    0.00
2720.00    320.98    6.22    14.02    0.00
2730.00    321.09    6.23    14.02    0.00
2740.00    321.19    6.23    14.03    0.00
2750.00    321.30    6.24    14.04    0.00
2760.00    321.41    6.25    14.05    0.00
2770.00    321.51    6.26    14.05    0.00
2780.00    321.62    6.26    14.06    0.00
2790.00    321.73    6.27    14.07    0.00
2800.00    321.84    6.28    14.07    0.00
2810.00    321.94    6.29    14.08    0.00
2820.00    322.05    6.29    14.09    0.00
2830.00    322.16    6.30    14.10    0.00
2840.00    322.27    6.31    14.10    0.00
2850.00    322.37    6.31    14.11    0.00
2860.00    322.48    6.32    14.12    0.00
2870.00    322.59    6.33    14.12    0.00
2880.00    322.70    6.34    14.13    0.00
2890.00    322.80    6.34    14.14    0.00
2900.00    322.91    6.35    14.14    0.00
2910.00    323.02    6.36    14.15    0.00
2920.00    323.13    6.37    14.16    0.00
2930.00    323.23    6.37    14.17    0.00
2940.00    323.34    6.38    14.17    0.00
2950.00    323.45    6.39    14.18    0.00
2960.00    323.56    6.40    14.19    0.00
2970.00    323.67    6.40    14.19    0.00
2980.00    323.77    6.41    14.20    0.00
2990.00    323.88    6.42    14.21    0.00
3000.00    323.99    6.43    14.21    0.00
3010.00    324.10    6.43    14.22    0.00
3020.00    324.21    6.44    14.23    0.00
3030.00    324.31    6.45    14.23    0.00
3040.00    324.42    6.46    14.24    0.00
3050.00    324.53    6.46    14.25    0.00
3060.00    324.64    6.47    14.25    0.00
3070.00    324.75    6.48    14.26    0.00
3080.00    324.86    6.49    14.27    0.00
3090.00    324.96    6.49    14.27    0.00
3100.00    325.07    6.50    14.28    0.00
3110.00    325.18    6.51    14.29    0.00
3120.00    325.29    6.52    14.29    0.00
3130.00    325.40    6.53    14.30    0.00
3140.00    325.51    6.53    14.31    0.00
3150.00    325.61    6.54    14.31    0.00
3160.00    325.72    6.55    14.32    0.00
3170.00    325.83    6.56    14.33    0.00
3180.00    325.94    6.56    14.33    0.00
3190.00    326.05    6.57    14.34    0.00
3200.00    326.16    6.58    14.35    0.00
3210.00    326.27    6.59    14.35    0.00
3220.00    326.38    6.59    14.36    0.00
3230.00    326.48    6.60    14.36    0.00
3240.00    326.59    6.61    14.37    0.00
3250.00    326.70    6.62    14.38    0.00
3260.00    326.81    6.63    14.38    0.00
3270.00    326.92    6.63    14.39    0.00
3280.00    327.03    6.64    14.40    0.00
3290.00    327.14    6.65    14.40    0.00
3300.00    327.25    6.66    14.41    0.00
3310.00    327.36    6.66    14.41    0.00
3320.00    327.47    6.67    14.42    0.00
3330.00    327.57    6.68    14.43    0.00
3340.00    327.68    6.69    14.43    0.00
3350.00    327.79    6.70    14.44    0.00
3360.00    327.90    6.70    14.45    0.00
3370.00    328.01    6.71    14.45    0.00
3380.00    328.12    6.72    14.46    0.00
3390.00    328.23    6.73    14.46    0.00
3400.00    328.34    6.73    14.47    0.00
3410.00    328.45    6.74    14.48    0.00
3420.00    328.56    6.75    14.48    0.00
3430.00    328.67    6.76    14.49    0.00
3440.00    328.78    6.77    14.49    0.00
3450.00    328.89    6.77    14.50    0.00
3460.00    329.00    6.78    14.51    0.00
3470.00    329.11    6.79    14.51    0.00
3480.00    329.22    6.80    14.52    0.00
3490.00    329.33    6.81    14.52    0.00
3500.00    329.44    6.81    14.53    0.00
3510.00    329.55    6.82    14.54    0.00
3520.00    329.66    6.83    14.54    0.00
3530.00    329.77    6.84    14.55    0.00
3540.00    329.88    6.85    14.55    0.00
3550.00    329.99    6.85    14.56    0.00
3560.00    330.10    6.86    14.57    0.00
3570.00    330.21    6.87    14.57    0.00
3580.00    330.32    6.88    14.58    0.00
3590.00    330.43    6.89    14.58    0.00
3600.00    330.54    6.89    14.59    0.00
3610.00    330.65    6.90    14.59    0.00
3620.00    330.76    6.91    14.60    0.00
3630.00    330.87    6.92    14.61    0.00
3640.00    330.98    6.93    14.61    0.00
3650.00    331.09    6.93    14.62    0.00
3660.00    331.20    6.94    14.62    0.00
3670.00    331.31    6.95    14.63    0.00
3680.00    331.42    6.96    14.63    0.00
3690.00    331.53    6.97    14.64    0.00
3700.00    331.64    6.98    14.65    0.00
3710.00    331.75    6.98    14.65    0.00
3720.00    331.86    6.99    14.66    0.00
3730.00    331.97    7.00    14.66    0.00
3740.00    332.08    7.01    14.67    0.00
3750.00    332.19    7.02    14.67    0.00
3760.00    332.30    7.02    14.68    0.00
3770.00    332.42    7.03    14.68    0.00
3780.00    332.53    7.04    14.69    0.00
3790.00    332.64    7.05    14.70    0.00
3800.00    332.75    7.06    14.70    0.00
3810.00    332.86    7.07    14.71    0.00
3820.00    332.97    7.07    14.71    0.00
3830.00    333.08    7.08    14.72    0.00
3840.00    333.19    7.09    14.72    0.00
3850.00    333.30    7.10    14.73    0.00
3860.00    333.41    7.11    14.73    0.00
3870.00    333.53    7.12    14.74    0.00
3880.00    333.64    7.12    14.75    0.00
3890.00    333.75    7.13    14.75    0.00
3900.00    333.86    7.14    14.76    0.00
3910.00    333.97    7.15    14.76    0.00
3920.00    334.08    7.16    14.77    0.00
3930.00    334.19    7.17    14.77    0.00
3940.00    334.31    7.17    14.78    0.00
3950.00    334.42    7.18    14.78    0.00
3960.00    334.53    7.19    14.79    0.00
3970.00    334.64    7.20    14.79    0.00
3980.00    334.75    7.21    14.80    0.00
3990.00    334.86    7.22    14.80    0.00
4000.00    334.97    7.22    14.81    0.00
4010.00    335.09    7.23    14.81    0.00
4020.00    335.20    7.24    14.82    0.00
4030.00    335.31    7.25    14.83    0.00
4040.00    335.42    7.26    14.83    0.00
4050.00    335.53    7.27    14.84    0.00
4060.00    335.65    7.28    14.84    0.00
4070.00    335.76    7.28    14.85    0.00
4080.00    335.87    7.29    14.85    0.00
4090.00    335.98    7.30    14.86    0.00
4100.00    336.09    7.31    14.86    0.00
4110.00    336.21    7.32    14.87    0.00
4120.00    336.32    7.33    14.87    0.00
4130.00    336.43    7.34    14.88    0.00
4140.00    336.54    7.34    14.88    0.00
4150.00    336.65    7.35    14.89    0.00
4160.00    336.77    7.36    14.89    0.00
4170.00    336.88    7.37    14.90    0.00
4180.00    336.99    7.38    14.90    0.00
4190.00    337.10    7.39    14.91    0.00
4200.00    337.22    7.40    14.91    0.00
4210.00    337.33    7.40    14.92    0.00
4220.00    337.44    7.41    14.92    0.00
4230.00    337.55    7.42    14.93    0.00
4240.00    337.67    7.43    14.93    0.00
4250.00    337.78    7.44    14.94    0.00
4260.00    337.89    7.45    14.94    0.00
4270.00    338.00    7.46    14.95    0.00
4280.00    338.12    7.47    14.95    0.00
4290.00    338.23    7.47    14.96    0.00
4300.00    338.34    7.48    14.96    0.00
4310.00    338.45    7.49    14.97    0.00
4320.00    338.57    7.50    14.97    0.00
4330.00    338.68    7.51    14.98    0.00
4340.00    338.79    7.52    14.98    0.00
4350.00    338.91    7.53    14.99    0.00
4360.00    339.02    7.54    14.99    0.00
4370.00    339.13    7.54    15.00    0.00
4380.00    339.25    7.55    15.00    0.00
4390.00    339.36    7.56    15.01    0.00
4400.00    339.47    7.57    15.01    0.00
4410.00    339.59    7.58    15.02    0.00
4420.00    339.70    7.59    15.02    0.00
4430.00    339.81    7.60    15.03    0.00
4440.00    339.93    7.61    15.03    0.00
4450.00    340.04    7.62    15.04    0.00
4460.00    340.15    7.62    15.04    0.00
4470.00    340.27    7.63    15.05    0.00
4480.00    340.38    7.64    15.05    0.00
4490.00    340.49    7.65    15.06    0.00
4500.00    340.61    7.66    15.06    0.00
4510.00    340.72    7.67    15.07    0.00
4520.00    340.83    7.68    15.07    0.00
4530.00    340.95    7.69    15.08    0.00
4540.00    341.06    7.70    15.08    0.00
4550.00    341.17    7.71    15.08    0.00
4560.00    341.29    7.71    15.09    0.00
4570.00    341.40    7.72    15.09    0.00
4580.00    341.52    7.73    15.10    0.00
4590.00    341.63    7.74    15.10    0.00
4600.00    341.74    7.75    15.11    0.00
4610.00    341.86    7.76    15.11    0.00
4620.00    341.97    7.77    15.12    0.00
4630.00    342.09    7.78    15.12    0.00
4640.00    342.20    7.79    15.13    0.00
4650.00    342.31    7.80    15.13    0.00
4660.00    342.43    7.81    15.14    0.00
4670.00    342.54    7.81    15.14    0.00
4680.00    342.66    7.82    15.15    0.00
4690.00    342.77    7.83    15.15    0.00
4700.00    342.88    7.84    15.15    0.00
4710.00    343.00    7.85    15.16    0.00
4720.00    343.11    7.86    15.16    0.00
4730.00    343.23    7.87    15.17    0.00
4740.00    343.34    7.88    15.17    0.00
4750.00    343.46    7.89    15.18    0.00
4760.00    343.57    7.90    15.18    0.00
4770.00    343.69    7.91    15.19    0.00
4780.00    343.80    7.92    15.19    0.00
4790.00    343.92    7.93    15.20    0.00
4800.00    344.03    7.93    15.20    0.00
4810.00    344.14    7.94    15.21    0.00
4820.00    344.26    7.95    15.21    0.00
4830.00    344.37    7.96    15.21    0.00
4840.00    344.49    7.97    15.22    0.00
4850.00    344.60    7.98    15.22    0.00
4860.00    344.72    7.99    15.23    0.00
4870.00    344.83    8.00    15.23    0.00
4880.00    344.95    8.01    15.24    0.00
4890.00    345.06    8.02    15.24    0.00
4900.00    345.18    8.03    15.25    0.00
4910.00    345.29    8.04    15.25    0.00
4920.00    345.41    8.05    15.25    0.00
4930.00    345.52    8.06    15.26    0.00
4940.00    345.64    8.07    15.26    0.00
4950.00    345.75    8.08    15.27    0.00
4960.00    345.87    8.08    15.27    0.00
4970.00    345.99    8.09    15.28    0.00
4980.00    346.10    8.10    15.28    0.00
4990.00    346.22    8.11    15.29    0.00
5000.00    346.33    8.12    15.29    0.00
5010.00    346.45    8.13    15.29    0.00
5020.00    346.56    8.14    15.30    0.00
5030.00    346.68    8.15    15.30    0.00
5040.00    346.79    8.16    15.31    0.00
5050.00    346.91    8.17    15.31    0.00
5060.00    347.03    8.18    15.32    0.00
5070.00    347.14    8.19    15.32    0.00
5080.00    347.26    8.20    15.32    0.00
5090.00    347.37    8.21    15.33    0.00
5100.00    347.49    8.22    15.33    0.00
5110.00    347.60    8.23    15.34    0.00
5120.00    347.72    8.24    15.34    0.00
5130.00    347.84    8.25    15.35    0.00
5140.00    347.95    8.26    15.35    0.00
5150.00    348.07    8.27    15.35    0.00
5160.00    348.18    8.28    15.36    0.00
5170.00    348.30    8.29    15.36    0.00
5180.00    348.42    8.30    15.37    0.00
5190.00    348.53    8.31    15.37    0.00
5200.00    348.65    8.32    15.38    0.00
5210.00    348.77    8.32    15.38    0.00
5220.00    348.88    8.33    15.38    0.00
5230.00    349.00    8.34    15.39    0.00
5240.00    349.11    8.35    15.39    0.00
5250.00    349.23    8.36    15.40    0.00
5260.00    349.35    8.37    15.40    0.00
5270.00    349.46    8.38    15.40    0.00
5280.00    349.58    8.39    15.41    0.00
5290.00    349.70    8.40    15.41    0.00
5300.00    349.81    8.41    15.42    0.00
5310.00    349.93    8.42    15.42    0.00
5320.00    350.05    8.43    15.43    0.00
5330.00    350.16    8.44    15.43    0.00
5340.00    350.28    8.45    15.43    0.00
5350.00    350.40    8.46    15.44    0.00
5360.00    350.51    8.47    15.44    0.00
5370.00    350.63    8.48    15.45    0.00
5380.00    350.75    8.49    15.45    0.00
5390.00    350.86    8.50    15.45    0.00
5400.00    350.98    8.51    15.46    0.00
5410.00    351.10    8.52    15.46    0.00
5420.00    351.22    8.53    15.47    0.00
5430.00    351.33    8.54    15.47    0.00
5440.00    351.45    8.55    15.47    0.00
5450.00    351.57    8.56    15.48    0.00
5460.00    351.68    8.57    15.48    0.00
5470.00    351.80    8.58    15.49    0.00
5480.00    351.92    8.59    15.49    0.00
5490.00    352.04    8.60    15.49    0.00
5500.00    352.15    8.61    15.50    0.00
5510.00    352.27    8.62    15.50    0.00
5520.00    352.39    8.63    15.51    0.00
5530.00    352.51    8.64    15.51    0.00
5540.00    352.62    8.65    15.52    0.00
5550.00    352.74    8.66    15.52    0.00
5560.00    352.86    8.67    15.52    0.00
5570.00    352.98    8.68    15.53    0.00
5580.00    353.09    8.69    15.53    0.00
5590.00    353.21    8.70    15.53    0.00
5600.00    353.33    8.71    15.54    0.00
5610.00    353.45    8.72    15.54    0.00
5620.00    353.57    8.73    15.55    0.00
5630.00    353.68    8.74    15.55    0.00
5640.00    353.80    8.76    15.55    0.00
5650.00    353.92    8.77    15.56    0.00
5660.00    354.04    8.78    15.56    0.00
5670.00    354.16    8.79    15.57    0.00
5680.00    354.27    8.80    15.57    0.00
5690.00    354.39    8.81    15.57    0.00
5700.00    354.51    8.82    15.58    0.00
5710.00    354.63    8.83    15.58    0.00
5720.00    354.75    8.84    15.59    0.00
5730.00    354.87    8.85    15.59    0.00
5740.00    354.98    8.86    15.59    0.00
5750.00    355.10    8.87    15.60    0.00
5760.00    355.22    8.88    15.60    0.00
5770.00    355.34    8.89    15.61    0.00
5780.00    355.46    8.90    15.61    0.00
5790.00    355.58    8.91    15.61    0.00
5800.00    355.69    8.92    15.62    0.00
5810.00    355.81    8.93    15.62    0.00
5820.00    355.93    8.94    15.62    0.00
5830.00    356.05    8.95    15.63    0.00
5840.00    356.17    8.96    15.63    0.00
5850.00    356.29    8.97    15.64    0.00
5860.00    356.41    8.98    15.64    0.00
5870.00    356.53    8.99    15.64    0.00
5880.00    356.64    9.01    15.65    0.00
5890.00    356.76    9.02    15.65    0.00
5900.00    356.88    9.03    15.66    0.00
5910.00    357.00    9.04    15.66    0.00
5920.00    357.12    9.05    15.66    0.00
5930.00    357.24    9.06    15.67    0.00
5940.00    357.36    9.07    15.67    0.00
5950.00    357.48    9.08    15.67    0.00
5960.00    357.60    9.09    15.68    0.00
5970.00    357.72    9.10    15.68    0.00
5980.00    357.84    9.11    15.69    0.00
5990.00    357.95    9.12    15.69    0.00
6000.00    358.07    9.13    15.69    0.00
