870.248   307.568    4.415
10.250   307.568    4.420    1.410    0.000
35.810   307.255    4.327    1.889    0.000
73.160   307.121    4.282    2.146    0.000
125.560   307.079    4.257    2.296    0.000
195.700   307.046    4.231    2.438    0.000
285.820   307.005    4.205    2.606    0.000
397.720   306.956    4.166    2.803    0.000
532.850   306.888    4.121    3.206    0.000
692.340   306.827    3.985    3.539    0.000
877.060   306.868    3.532    4.278    0.000
1087.730   307.670    2.390    5.765    0.000
1325.360   308.542    2.009    7.655    0.000
1590.420   309.087    1.767    9.393    0.000
1882.860   309.869    1.423   11.090    0.000
2202.960   311.134    1.075   13.113    0.000
2551.220   312.866    0.777   15.591    0.000
2928.130   315.058    0.519   18.503    0.000
3334.160   317.343    0.397   21.659    0.000
3769.300   319.472    0.443   24.543    0.000
4233.060   321.297    0.586   26.578    0.000
4724.630   323.025    0.747   27.734    0.000
5243.360   324.875    0.819   28.864    0.000
5788.870   327.002    0.761   30.291    0.000
6361.070   329.514    0.635   31.819    0.000
6960.120   332.220    0.520   33.119    0.000
7585.990   334.615    0.376   34.204    0.000
8237.870   336.435    0.264   35.821    0.000
8914.780   338.264    0.166   38.544    0.000
9617.280   341.640    0.063   41.570    0.000
10350.380   346.937    0.022   41.764    0.000
11121.580   352.683    0.015   37.020    0.000
11934.980   358.674    0.008   31.374    0.000
12792.480   366.091    0.005   26.737    0.000
13697.380   376.087    0.005   19.404    0.000
14654.580   389.499    0.004   11.224    0.000
15669.080   415.002    0.003    5.038    0.000
16767.380   438.825    0.002    3.550    0.000
17940.380   470.648    0.002    2.142    0.000
19200.780   497.271    0.002    4.824    0.000
20522.980   532.721    0.002    4.882    0.000
21893.180   570.001    0.002    5.647    0.000
23271.980   611.403    0.002    6.814    0.000
24663.080   658.062    0.002    4.495    0.000
